[TITLE]

[JUNCTIONS]
 J-10                                828.8445
 J-100                               790.9639
 J-101                               794.6306
 J-102                               802.1594
 J-104                               817.7249
 J-105                               796.4333
 J-106                               790.2957
 J-107                               816.2297
 J-108                               794.1237
 J-109                               782.7518
 J-11                                818.2994
 J-110                               787.2466
 J-111                               782.9852
 J-112                               802.0513
 J-113                               795.7542
 J-114                               792.9813
 J-115                               803.8035
 J-116                               802.1408
 J-117                               780.9288
 J-118                               796.9921
 J-119                               800.8981
 J-12                                838.1457
 J-120                               776.6381
 J-121                               774.3021
 J-122                               767.2404
 J-123                               766.9856
 J-124                               766.7805
 J-125                               834.1751
 J-126                               836.0001
 J-127                               831.3358
 J-128                               793.6392
 J-129                               801.9901
 J-13                                847.2910
 J-130                               772.8477
 J-131                               831.6840
 J-132                               773.8129
 J-133                               763.1392
 J-134                               787.2431
 J-135                               791.7680
 J-136                               811.9827
 J-137                               832.6207
 J-138                               793.5883
 J-139                               786.4223
 J-14                                834.1526
 J-140                               788.9087
 J-141                               799.5566
 J-142                               783.3803
 J-143                               782.3546
 J-144                               768.5918
 J-145                               774.3886
 J-146                               791.8760
 J-147                               786.7598
 J-148                               795.0909
 J-149                               791.4926
 J-15                                828.3569
 J-150                               815.4116
 J-151                               814.3098
 J-152                               808.5590
 J-153                               830.0000
 J-154                               831.8247
 J-155                               817.0548
 J-156                               818.0138
 J-157                               848.9992
 J-158                               849.0745
 J-159                               816.0419
 J-16                                801.1484
 J-160                               815.7910
 J-161                               800.3026
 J-162                               819.8542
 J-163                               798.8856
 J-164                               829.5526
 J-165                               828.7344
 J-166                               801.2444
 J-167                               808.8815
 J-168                               809.2352
 J-169                               816.5959
 J-17                                801.6494
 J-170                               817.6552
 J-171                               784.4080
 J-172                               769.4605
 J-173                               781.4521
 J-174                               842.5783
 J-175                               847.9591
 J-176                               848.5935
 J-177                               763.2322
 J-178                               768.3831
 J-179                               818.9085
 J-18                                801.1096
 J-180                               806.2142
 J-181                               793.3320
 J-182                               821.8295
 J-183                               800.5990
 J-184                               845.7887
 J-185                               792.9980
 J-186                               847.0595
 J-187                               821.3698
 J-188                               829.2183
 J-189                               770.6395
 J-19                                800.1249
 J-190                               814.8903
 J-191                               798.9071
 J-192                               783.5080
 J-193                               787.2745
 J-194                               804.6121
 J-195                               805.8224
 J-196                               852.1768
 J-197                               820.0070
 J-198                               791.9252
 J-199                               794.7231
 J-2                                 789.5876
 J-20                                774.7957
 J-200                               812.0537
 J-201                               815.2474
 J-202                               794.4698
 J-203                               848.1268
 J-204                               846.6216
 J-205                               755.0457
 J-206                               753.1669
 J-207                               849.7301
 J-208                               840.1483
 J-209                               845.5858
 J-21                                778.5852
 J-210                               846.3683
 J-211                               823.7883
 J-212                               822.3411
 J-213                               765.5276
 J-214                               773.0233
 J-215                               777.9929
 J-216                               777.6078
 J-217                               796.6075
 J-218                               788.0509
 J-219                               794.8295
 J-22                                833.7238
 J-220                               795.0597
 J-223                               813.1891
 J-224                               764.7073
 J-225                               752.0433
 J-226                               838.3704
 J-227                               839.9761
 J-228                               820.1144
 J-229                               789.3262
 J-23                                848.5280
 J-230                               797.2837
 J-231                               796.7621
 J-232                               798.2814
 J-233                               845.4043
 J-234                               841.5645
 J-235                               781.0895
 J-236                               797.2643
 J-237                               793.5228
 J-238                               718.9197
 J-239                               799.7146
 J-24                                772.5317
 J-240                               814.5552
 J-242                               805.3500
 J-243                               831.8956
 J-244                               810.8175
 J-245                               791.7729
 J-246                               773.9565
 J-247                               837.7095
 J-248                               839.9330
 J-249                               810.4707
 J-25                                765.8198
 J-250                               790.7003
 J-252                               847.7175
 J-253                               855.9560
 J-254                               806.4176
 J-255                               792.9711
 J-256                               820.8139
 J-258                               820.0000
 J-259                               832.9716
 J-26                                769.2095
 J-260                               827.7749
 J-261                               849.7714
 J-262                               769.0292
 J-263                               832.3708
 J-264                               827.4453
 J-265                               769.5087
 J-266                               825.8301
 J-267                               801.8317
 J-269                               847.4963
 J-27                                806.6712
 J-271                               843.0148
 J-273                               777.1981
 J-274                               847.7908
 J-275                               833.6733
 J-276                               851.1453
 J-277                               837.8567
 J-278                               845.9016
 J-28                                824.7031
 J-282                               845.3043
 J-284                               800.1439
 J-285                               827.2924
 J-289                               778.7175
 J-29                                841.1129
 J-290                               811.0945
 J-291                               821.3145
 J-292                               817.2158
 J-293                               816.3916
 J-294                               843.4979
 J-295                               844.3936
 J-296                               846.0858
 J-297                               846.0169
 J-298                               841.4850
 J-299                               847.8912
 J-3                                 831.1293
 J-30                                830.4042
 J-300                               785.1967
 J-301                               846.9297
 J-302                               841.5295
 J-303                               844.2431
 J-304                               842.5818
 J-305                               846.1216
 J-306                               843.1842
 J-307                               832.7841
 J-308                               827.6897
 J-309                               803.7831
 J-31                                835.7934
 J-310                               755.3441
 J-311                               816.4731
 J-312                               788.3543
 J-313                               808.3130
 J-314                               817.7527
 J-315                               843.1024
 J-316                               805.1683
 J-317                               832.0784
 J-318                               830.2332
 J-319                               834.8745
 J-32                                765.8771
 J-320                               808.5887
 J-321                               840.4983
 J-322                               795.3024
 J-323                               814.0168
 J-324                               779.3544
 J-325                               770.5901
 J-327                               801.9966
 J-328                               807.4794
 J-329                               801.8053
 J-33                                815.3002
 J-330                               800.7545
 J-331                               801.1031
 J-332                               848.9556
 J-333                               828.6303
 J-334                               801.5906
 J-335                               840.1256
 J-336                               778.2983
 J-337                               785.5931
 J-338                               840.3649
 J-339                               842.7824
 J-34                                808.8909
 J-340                               817.6592
 J-341                               777.0864
 J-342                               775.9942
 J-343                               811.4502
 J-344                               809.0619
 J-345                               788.5825
 J-346                               804.6553
 J-347                               848.5305
 J-348                               779.8533
 J-349                               787.9268
 J-350                               807.9980
 J-351                               817.6287
 J-353                               753.8628
 J-354                               848.7176
 J-355                               781.6063
 J-356                               773.0310
 J-357                               786.5272
 J-36                                794.8693
 J-360                               771.6101
 J-361                               770.9758
 J-362                               822.0267
 J-363                               790.5926
 J-364                               834.4853
 J-365                               835.2874
 J-366                               837.8425
 J-367                               838.2403
 J-368                               826.6315
 J-369                               767.9528
 J-37                                848.9241
 J-370                               813.7955
 J-371                               808.2310
 J-372                               807.4274
 J-373                               824.9922
 J-374                               812.0000
 J-375                               810.9966
 J-376                               837.6099
 J-377                               839.5812
 J-378                               779.7324
 J-379                               835.8257
 J-38                                835.2093
 J-380                               827.7276
 J-381                               798.3246
 J-382                               773.5259
 J-383                               820.0000
 J-384                               801.9998
 J-385                               804.7753
 J-386                               824.4662
 J-387                               809.8323
 J-388                               811.3403
 J-389                               792.7795
 J-390                               810.5739
 J-391                               770.8436
 J-393                               768.5461
 J-394                               846.1167
 J-395                               778.2656
 J-396                               819.9219
 J-397                               791.9307
 J-398                               763.1334
 J-399                               811.9775
 J-4                                 808.8466
 J-40                                852.3708
 J-400                               803.0000
 J-401                               829.7053
 J-402                               832.2203
 J-406                               783.7897
 J-407                               772.4271
 J-408                               768.3390
 J-409                               801.4498
 J-41                                851.2064
 J-410                               773.2093
 J-411                               804.5766
 J-412                               764.0233
 J-413                               770.0999
 J-414                               795.2169
 J-415                               772.3864
 J-416                               799.2510
 J-417                               837.4109
 J-418                               773.1790
 J-419                               796.3238
 J-42                                839.3698
 J-420                               804.7853
 J-421                               824.3940
 J-422                               795.8980
 J-423                               793.3004
 J-424                               792.5258
 J-425                               775.6345
 J-426                               827.0205
 J-427                               769.7067
 J-429                               800.1978
 J-43                                852.4200
 J-44                                803.1959
 J-45                                805.8344
 J-46                                817.9249
 J-47                                810.1208
 J-48                                818.6525
 J-49                                809.3203
 J-5                                 817.9852
 J-50                                814.7765
 J-51                                852.8066
 J-52                                786.9318
 J-53                                801.5938
 J-54                                788.6907
 J-55                                802.8809
 J-56                                843.1617
 J-57                                845.6056
 J-58                                845.6475
 J-59                                841.0788
 J-6                                 835.7264
 J-60                                852.9810
 J-61                                852.1229
 J-62                                804.2570
 J-63                                830.3045
 J-64                                789.5798
 J-65                                793.3044
 J-66                                835.8278
 J-67                                832.6392
 J-68                                792.0000
 J-69                                787.0961
 J-7                                 779.9771
 J-70                                802.2471
 J-71                                788.7918
 J-72                                797.1779
 J-73                                801.5491
 J-74                                798.6482
 J-75                                815.9398
 J-76                                797.8838
 J-77                                792.0991
 J-78                                773.3942
 J-79                                773.2668
 J-8                                 837.0383
 J-80                                802.2539
 J-81                                800.0000
 J-82                                780.2430
 J-83                                821.5419
 J-84                                798.0248
 J-85                                815.5989
 J-86                                843.2295
 J-87                                838.6764
 J-88                                803.9924
 J-89                                795.9047
 J-9                                 823.9887
 J-90                                794.0544
 J-91                                836.0414
 J-92                                850.2725
 J-93                                797.4409
 J-94                                800.4238
 J-95                                808.9937
 J-96                                808.9899
 J-97                                807.4824
 J-98                                839.1347
 J-99                                835.9493
 O-Pump-1                            781.6160
 I-Pump-2                            611.7775
 I-Pump-3                            611.6825
 O-Pump-4                            609.5184
 I-Pump-5                            642.8569
 O-Pump-6                            637.6563
 O-Pump-7                            829.1792
 O-Pump-8                            620.5346
 I-Pump-9                            766.7570
 I-Pump-1                            781.6160
 O-Pump-2                            611.7775
 O-Pump-3                            611.6825
 I-Pump-4                            609.5184
 O-Pump-5                            642.8569
 I-Pump-6                            637.6563
 I-Pump-7                            829.1792
 I-Pump-8                            620.5346
 O-Pump-9                            766.7570
 I-Pump-7a                           829.1792
 O-Pump-7a                           829.1792
 I-Pump-9a                           766.7570
 O-Pump-9a                           766.7570

[RESERVOIRS]
 R-1                                 623.9983 
 R-2                                 611.8937 
 R-3                                 609.0300 
 R-4                                 659.2836 

[TANKS]
 T-1                                 887.3956      62.6044      57.6044      82.6044      53.0000  127085.8072 
 T-2                                 901.4387      28.5613      23.5613      58.5613      68.0000   85567.0555 
 T-3                                 898.1403      51.8597      26.8597      61.8597      68.0000   97545.7924 

[PIPES]
 P-10                            J-16                            J-17                                293.5700       4.0000     150.0000       0.0000 
 P-100                           J-163                           J-74                                520.2190       6.0000     150.0000       0.0000 
 P-101                           J-164                           J-165                               570.2600      10.0000     150.0000       0.0000 
 P-102                           J-166                           J-167                               378.8500       4.0000     150.0000       0.0000 
 P-103                           J-152                           J-4                                  46.8100      10.0000     150.0000       0.0000 
 P-104                           J-169                           J-170                               192.2200      10.0000     150.0000       0.0000 
 P-105                           J-171                           J-172                               586.7100       6.0000     150.0000       0.0000 
 P-106                           J-173                           J-141                               802.0000       6.0000     150.0000       0.0000 
 P-107                           J-174                           J-92                                400.5890       6.0000     150.0000       0.0000 
 P-108                           J-175                           J-58                                112.4100       8.0000     150.0000       0.0000 
 P-109                           J-99                            J-176                              1780.2900       6.0000     150.0000       0.0000 
 P-11                            J-18                            J-19                                373.6490       6.0000     150.0000       0.0000 
 P-110                           J-177                           J-178                               283.2900       6.0000     150.0000       0.0000 
 P-111                           J-135                           J-17                                732.6590      10.0000     150.0000       0.0000 
 P-112                           J-81                            J-80                                348.5490       6.0000     150.0000       0.0000 
 P-113                           J-68                            J-138                               516.9500       4.0000     150.0000       0.0000 
 P-114                           J-162                           J-179                               326.1700       6.0000     150.0000       0.0000 
 P-115                           J-84                            J-180                               333.6190      10.0000     150.0000       0.0000 
 P-116                           J-181                           J-128                                95.7090       6.0000     150.0000       0.0000 
 P-117                           J-179                           J-182                               388.3290       6.0000     150.0000       0.0000 
 P-118                           J-183                           J-18                                357.1600       2.0000     150.0000       0.0000 
 P-119                           J-175                           J-184                                68.3090       6.0000     150.0000       0.0000 
 P-12                            J-20                            J-21                                200.2290       2.0000     150.0000       0.0000 
 P-120                           J-185                           J-122                              1138.5200       6.0000     150.0000       0.0000 
 P-121                           J-87                            J-186                               308.4400       6.0000     150.0000       0.0000 
 P-122                           J-162                           J-187                               757.4290       4.0000     150.0000       0.0000 
 P-123                           J-127                           J-188                               327.8200       8.0000     150.0000       0.0000 
 P-124                           J-189                           J-64                                591.6300       6.0000     150.0000       0.0000 
 P-125                           J-190                           J-179                               254.1100       6.0000     150.0000       0.0000 
 P-126                           J-146                           J-191                               885.8490       6.0000     150.0000       0.0000 
 P-127                           J-153                           J-169                               774.9890      12.0000     150.0000       0.0000 
 P-128                           J-192                           J-173                               349.6400       6.0000     150.0000       0.0000 
 P-129                           J-52                            J-193                                80.3190       6.0000     150.0000       0.0000 
 P-13                            I-Pump-6                        R-1                                 920.8090      24.0000     150.0000       0.0000 
 P-130                           J-194                           J-195                                71.1800       6.0000     150.0000       0.0000 
 P-131                           J-186                           J-196                               267.9800       6.0000     150.0000       0.0000 
 P-132                           J-156                           J-197                               303.8900       6.0000     150.0000       0.0000 
 P-133                           J-198                           J-199                               130.1000       2.0000     150.0000       0.0000 
 P-134                           J-170                           J-200                               749.7290      10.0000     150.0000       0.0000 
 P-135                           J-169                           J-201                               162.6000      12.0000     150.0000       0.0000 
 P-136                           J-172                           J-202                               858.6690       4.0000     150.0000       0.0000 
 P-137                           J-203                           J-204                               269.2690       8.0000     150.0000       0.0000 
 P-138                           J-205                           J-206                                51.7200       6.0000     150.0000       0.0000 
 P-139                           J-207                           J-208                              1133.1801       4.0000     150.0000       0.0000 
 P-14                            J-20                            J-24                                320.2900       6.0000     150.0000       0.0000 
 P-140                           J-209                           J-210                               598.6300       8.0000     150.0000       0.0000 
 P-141                           J-211                           J-212                               102.3700       8.0000     150.0000       0.0000 
 P-142                           J-213                           J-214                              1793.5400      12.0000     150.0000       0.0000 
 P-143                           J-160                           J-155                               358.9800       6.0000     150.0000       0.0000 
 P-144                           J-215                           J-216                               673.5300       6.0000     150.0000       0.0000 
 P-145                           J-74                            J-217                               739.8690       6.0000     150.0000       0.0000 
 P-146                           J-151                           J-168                               279.3390       6.0000     150.0000       0.0000 
 P-147                           J-90                            J-218                               486.3590       6.0000     150.0000       0.0000 
 P-148                           J-219                           J-82                                764.1900       8.0000     150.0000       0.0000 
 P-149                           J-64                            J-220                               109.9100       6.0000     150.0000       0.0000 
 P-15                            J-25                            J-26                                170.5500       6.0000     150.0000       0.0000 
 P-150                           J-155                           J-212                               528.9400       4.0000     150.0000       0.0000 
 P-151                           R-1                             I-Pump-8                            730.5200      20.0000     150.0000       0.0000 
 P-152                           J-200                           J-223                               719.8800       6.0000     150.0000       0.0000 
 P-153                           J-224                           J-225                               351.2600       1.5000     150.0000       0.0000 
 P-154                           J-226                           J-227                               753.5990       4.0000     150.0000       0.0000 
 P-155                           J-226                           J-228                               435.3590       6.0000     150.0000       0.0000 
 P-156                           J-154                           J-6                                 554.9790      24.0000     150.0000       0.0000 
 P-157                           J-139                           J-230                               295.3900       1.0000     100.0000       0.0000 
 P-158                           J-129                           J-231                               454.2300      10.0000     150.0000       0.0000 
 P-159                           J-232                           J-105                                88.3890       8.0000     150.0000       0.0000 